@<TRIPOS>MOLECULE
Unnamed
55 58 1 0 0
SMALL
USER_CHARGES


@<TRIPOS>ATOM
      1 O           0.3284    1.2223    1.5638 O.3       1     ****    0.0000
      2 O           4.2281    0.1978   -0.9781 O.3       1     ****    0.0000
      3 O          -1.7894   -1.2956   -0.7076 O.2       1     ****    0.0000
      4 O          -3.2024    4.1091    5.8414 O.3       1     ****    0.0000
      5 C          -1.0320    1.5026    1.3770 C.3       1     ****    0.0000
      6 C          -1.7609    0.1978    1.1004 C.3       1     ****    0.0000
      7 C           0.9313    0.5086    0.5565 C.ar      1     ****    0.0000
      8 C           5.0589    0.6620    0.0472 C.3       1     ****    0.0000
      9 C           2.2568    0.6744    0.3223 C.ar      1     ****    0.0000
     10 C           0.2351   -0.3314   -0.2437 C.ar      1     ****    0.0000
     11 C          -1.6123    2.2179    2.5840 C.ar      1     ****    0.0000
     12 C           2.8954    0.0479   -0.6903 C.ar      1     ****    0.0000
     13 C          -1.0975   -0.5487   -0.0465 C.2       1     ****    0.0000
     14 C           4.3104    1.5923    0.9635 C.2       1     ****    0.0000
     15 C           2.9804    1.5110    1.0909 C.2       1     ****    0.0000
     16 C           0.8662   -0.9870   -1.2325 C.ar      1     ****    0.0000
     17 C           2.1730   -0.7964   -1.4447 C.ar      1     ****    0.0000
     18 C           6.2447    1.3850   -0.5981 C.3       1     ****    0.0000
     19 C           5.5511   -0.5415    0.8602 C.3       1     ****    0.0000
     20 C          -2.4052    3.2933    2.4404 C.ar      1     ****    0.0000
     21 C          -1.3635    1.7875    3.8316 C.ar      1     ****    0.0000
     22 C          -2.9356    3.9398    3.4941 C.ar      1     ****    0.0000
     23 C          -2.6793    3.5000    4.7423 C.ar      1     ****    0.0000
     24 C          -1.8914    2.4213    4.8883 C.ar      1     ****    0.0000
     25 C          -3.8305    5.1396    3.2594 C.3       1     ****    0.0000
     26 C          -5.2492    4.6669    3.0655 C.2       1     ****    0.0000
     27 C          -5.9330    4.5763    1.9104 C.2       1     ****    0.0000
     28 C          -7.3519    4.0535    1.8881 C.3       1     ****    0.0000
     29 C          -5.3965    4.9538    0.5501 C.3       1     ****    0.0000
     30 H          -1.1089    2.1643    0.4793 H         1     ****    0.0000
     31 H          -2.8265    0.4144    0.8503 H         1     ****    0.0000
     32 H          -1.7479   -0.4700    1.9934 H         1     ****    0.0000
     33 H           4.8929    2.2690    1.6103 H         1     ****    0.0000
     34 H           2.5231    2.1423    1.8703 H         1     ****    0.0000
     35 H           0.3450   -1.6928   -1.9006 H         1     ****    0.0000
     36 H           2.6688   -1.3397   -2.2677 H         1     ****    0.0000
     37 H           6.7929    0.7130   -1.2972 H         1     ****    0.0000
     38 H           5.9048    2.2718   -1.1806 H         1     ****    0.0000
     39 H           6.9730    1.7405    0.1658 H         1     ****    0.0000
     40 H           6.1099   -1.2610    0.2193 H         1     ****    0.0000
     41 H           6.2340   -0.2225    1.6802 H         1     ****    0.0000
     42 H           4.7041   -1.0958    1.3254 H         1     ****    0.0000
     43 H          -2.6343    3.6543    1.4247 H         1     ****    0.0000
     44 H          -0.7265    0.9032    3.9972 H         1     ****    0.0000
     45 H          -1.6764    2.0455    5.9030 H         1     ****    0.0000
     46 H          -3.8010    5.8478    4.1185 H         1     ****    0.0000
     47 H          -3.4518    5.7365    2.4028 H         1     ****    0.0000
     48 H          -5.7481    4.3261    3.9897 H         1     ****    0.0000
     49 H          -2.9262    3.6252    6.6364 H         1     ****    0.0000
     50 H          -7.7327    3.7825    2.8977 H         1     ****    0.0000
     51 H          -8.0377    4.8239    1.4684 H         1     ****    0.0000
     52 H          -7.4152    3.1419    1.2517 H         1     ****    0.0000
     53 H          -4.3482    5.3151    0.5488 H         1     ****    0.0000
     54 H          -5.4322    4.0706   -0.1273 H         1     ****    0.0000
     55 H          -6.0230    5.7598    0.1055 H         1     ****    0.0000
@<TRIPOS>BOND
     1     1     5     1
     2     1     7     1
     3     2     8     1
     4     2    12     1
     5     3    13     2
     6     4    23     1
     7     4    49     1
     8     5     6     1
     9     5    11     1
    10     5    30     1
    11     6    13     1
    12     6    31     1
    13     6    32     1
    14     7     9     1
    15     7    10     2
    16     8    14     1
    17     8    18     1
    18     8    19     1
    19     9    12     2
    20     9    15     1
    21    10    13     1
    22    10    16     1
    23    11    20     1
    24    11    21     2
    25    12    17     1
    26    14    15     2
    27    14    33     1
    28    15    34     1
    29    16    17     2
    30    16    35     1
    31    17    36     1
    32    18    37     1
    33    18    38     1
    34    18    39     1
    35    19    40     1
    36    19    41     1
    37    19    42     1
    38    20    22     2
    39    20    43     1
    40    21    24     1
    41    21    44     1
    42    22    23     1
    43    22    25     1
    44    23    24     2
    45    24    45     1
    46    25    26     1
    47    25    46     1
    48    25    47     1
    49    26    27     2
    50    26    48     1
    51    27    28     1
    52    27    29     1
    53    28    50     1
    54    28    51     1
    55    28    52     1
    56    29    53     1
    57    29    54     1
    58    29    55     1
