@<TRIPOS>MOLECULE
Unnamed
34 36 1 0 0
SMALL
USER_CHARGES


@<TRIPOS>ATOM
      1 O          -2.5031    1.5280    0.2749 O.3       1     ****    0.0000
      2 O           1.9738    1.0414    1.7349 O.3       1     ****    0.0000
      3 O          -3.8044    4.4632    2.7366 O.3       1     ****    0.0000
      4 O          -0.1471   -2.3807   -0.7928 O.3       1     ****    0.0000
      5 O          -3.4521    3.4831    0.5039 O.2       1     ****    0.0000
      6 O          -1.2779    8.0773    4.2139 O.3       1     ****    0.0000
      7 C          -0.2579    1.2694    0.9851 C.ar      1     ****    0.0000
      8 C          -1.4391    3.2921    1.5126 C.2       1     ****    0.0000
      9 C          -1.3478    0.8123    0.3433 C.ar      1     ****    0.0000
     10 C          -0.3576    2.4828    1.5628 C.2       1     ****    0.0000
     11 C          -1.4639    4.4787    2.1834 C.ar      1     ****    0.0000
     12 C           0.8808    0.5376    1.0641 C.ar      1     ****    0.0000
     13 C          -2.5003    2.7882    0.8097 C.2       1     ****    0.0000
     14 C          -1.2916   -0.3977   -0.2368 C.ar      1     ****    0.0000
     15 C           0.8738   -0.6661    0.4562 C.ar      1     ****    0.0000
     16 C          -2.5766    5.0579    2.7051 C.ar      1     ****    0.0000
     17 C          -0.1890   -1.1575   -0.1985 C.ar      1     ****    0.0000
     18 C          -0.3075    5.1475    2.3989 C.ar      1     ****    0.0000
     19 C          -2.4793    6.2225    3.3741 C.ar      1     ****    0.0000
     20 C          -0.2345    6.3218    3.0418 C.ar      1     ****    0.0000
     21 C          -1.3343    6.8967    3.5420 C.ar      1     ****    0.0000
     22 C           3.1663    0.2933    1.7862 C.3       1     ****    0.0000
     23 H           0.5150    2.7997    2.1520 H         1     ****    0.0000
     24 H          -2.1822   -0.7816   -0.7624 H         1     ****    0.0000
     25 H           1.7636   -1.3141    0.4737 H         1     ****    0.0000
     26 H           0.6594    4.8030    1.9971 H         1     ****    0.0000
     27 H          -3.3903    6.6497    3.8284 H         1     ****    0.0000
     28 H           0.7378    6.8302    3.1589 H         1     ****    0.0000
     29 H           3.9124    0.8858    2.3619 H         1     ****    0.0000
     30 H           3.0000   -0.6661    2.3250 H         1     ****    0.0000
     31 H           3.5695    0.1344    0.7613 H         1     ****    0.0000
     32 H          -4.3380    4.8752    3.4346 H         1     ****    0.0000
     33 H           0.7281   -2.7757   -0.6493 H         1     ****    0.0000
     34 H          -0.3553    8.3776    4.2498 H         1     ****    0.0000
@<TRIPOS>BOND
     1     1     9     1
     2     1    13     1
     3     2    12     1
     4     2    22     1
     5     3    16     1
     6     3    32     1
     7     4    17     1
     8     4    33     1
     9     5    13     2
    10     6    21     1
    11     6    34     1
    12     7     9     1
    13     7    10     1
    14     7    12     2
    15     8    10     2
    16     8    11     1
    17     8    13     1
    18     9    14     2
    19    10    23     1
    20    11    16     1
    21    11    18     2
    22    12    15     1
    23    14    17     1
    24    14    24     1
    25    15    17     2
    26    15    25     1
    27    16    19     2
    28    18    20     1
    29    18    26     1
    30    19    21     1
    31    19    27     1
    32    20    21     2
    33    20    28     1
    34    22    29     1
    35    22    30     1
    36    22    31     1
