REMARK  4 active torsions:
REMARK  status: ('A' for Active; 'I' for Inactive)
REMARK    1  A    between atoms: O_4  and  C_23 
REMARK    2  A    between atoms: C_5  and  C_11 
REMARK    3  A    between atoms: C_22  and  C_25 
REMARK    4  A    between atoms: C_25  and  C_26 
ROOT
ATOM      1  O   *** d   *       0.328   1.222   1.564  0.00  0.00    -0.339 OA
ATOM      2  O   *** d   *       4.228   0.198  -0.978  0.00  0.00    -0.336 OA
ATOM      3  O   *** d   *      -1.789  -1.296  -0.708  0.00  0.00    -0.292 OA
ATOM      4  C   *** d   *      -1.032   1.503   1.377  0.00  0.00     0.169 C 
ATOM      5  C   *** d   *      -1.761   0.198   1.100  0.00  0.00     0.121 C 
ATOM      6  C   *** d   *       0.931   0.509   0.556  0.00  0.00     0.096 A 
ATOM      7  C   *** d   *       5.059   0.662   0.047  0.00  0.00     0.078 C 
ATOM      8  C   *** d   *       2.257   0.674   0.322  0.00  0.00     0.032 A 
ATOM      9  C   *** d   *       0.235  -0.331  -0.244  0.00  0.00     0.044 A 
ATOM     10  C   *** d   *       2.895   0.048  -0.690  0.00  0.00     0.083 A 
ATOM     11  C   *** d   *      -1.097  -0.549  -0.047  0.00  0.00     0.165 C 
ATOM     12  C   *** d   *       4.310   1.592   0.964  0.00  0.00     0.012 C 
ATOM     13  C   *** d   *       2.980   1.511   1.091  0.00  0.00     0.016 C 
ATOM     14  C   *** d   *       0.866  -0.987  -1.232  0.00  0.00     0.021 A 
ATOM     15  C   *** d   *       2.173  -0.796  -1.445  0.00  0.00     0.039 A 
ATOM     16  C   *** d   *       6.245   1.385  -0.598  0.00  0.00     0.051 C 
ATOM     17  C   *** d   *       5.551  -0.541   0.860  0.00  0.00     0.051 C 
ENDROOT
BRANCH   4  18
ATOM     18  C   *** d   *      -1.612   2.218   2.584  0.00  0.00    -0.028 A 
ATOM     19  C   *** d   *      -2.405   3.293   2.440  0.00  0.00     0.020 A 
ATOM     20  C   *** d   *      -2.936   3.940   3.494  0.00  0.00    -0.021 A 
ATOM     21  C   *** d   *      -2.679   3.500   4.742  0.00  0.00     0.072 A 
ATOM     22  C   *** d   *      -1.891   2.421   4.888  0.00  0.00     0.037 A 
ATOM     23  C   *** d   *      -1.363   1.788   3.832  0.00  0.00     0.012 A 
BRANCH  20  24
ATOM     24  C   *** d   *      -3.830   5.140   3.259  0.00  0.00     0.068 C 
BRANCH  24  25
ATOM     25  C   *** d   *      -5.249   4.667   3.066  0.00  0.00    -0.020 C 
ATOM     26  C   *** d   *      -5.933   4.576   1.910  0.00  0.00    -0.091 C 
ATOM     27  C   *** d   *      -7.352   4.053   1.888  0.00  0.00     0.042 C 
ATOM     28  C   *** d   *      -5.396   4.954   0.550  0.00  0.00     0.042 C 
ENDBRANCH  24  25
ENDBRANCH  20  24
BRANCH  21  29
ATOM     29  O   *** d   *      -3.202   4.109   5.841  0.00  0.00    -0.360 OA
ATOM     30  H   *** d   *      -2.926   3.625   6.636  0.00  0.00     0.217 HD
ENDBRANCH  21  29
ENDBRANCH   4  18
TORSDOF 4
