REMARK  5 active torsions:
REMARK  status: ('A' for Active; 'I' for Inactive)
REMARK    1  A    between atoms: O_3  and  C_20 
REMARK    2  A    between atoms: O_4  and  C_24 
REMARK    3  A    between atoms: C_14  and  C_16 
REMARK    4  A    between atoms: C_17  and  C_19 
REMARK    5  A    between atoms: C_18  and  C_19 
ROOT
ATOM      1  O   *** d   *      -2.418   1.931  -0.179  0.00  0.00    -0.336 OA
ATOM      2  C   *** d   *      -2.686   2.850   0.845  0.00  0.00     0.078 C 
ATOM      3  C   *** d   *      -2.208   2.344   2.183  0.00  0.00     0.011 C 
ATOM      4  C   *** d   *      -1.312   1.135  -0.032  0.00  0.00     0.080 A 
ATOM      5  C   *** d   *      -0.711   0.895   1.151  0.00  0.00    -0.002 A 
ATOM      6  C   *** d   *      -4.198   3.090   0.876  0.00  0.00     0.051 C 
ATOM      7  C   *** d   *      -1.951   4.159   0.526  0.00  0.00     0.051 C 
ATOM      8  C   *** d   *      -1.218   1.447   2.267  0.00  0.00     0.013 C 
ATOM      9  C   *** d   *       0.359   0.081   1.221  0.00  0.00     0.025 A 
ATOM     10  C   *** d   *      -0.754   0.573  -1.118  0.00  0.00     0.038 A 
ATOM     11  C   *** d   *       0.911  -0.495   0.133  0.00  0.00    -0.035 A 
ATOM     12  C   *** d   *       0.325  -0.221  -1.046  0.00  0.00     0.014 A 
ENDROOT
BRANCH  11  13
ATOM     13  C   *** d   *       1.989  -1.296   0.286  0.00  0.00     0.015 C 
ATOM     14  C   *** d   *       2.707  -1.907  -0.675  0.00  0.00     0.056 C 
BRANCH  14  15
ATOM     15  C   *** d   *       3.795  -2.723  -0.526  0.00  0.00     0.184 C 
ATOM     16  O   *** d   *       4.497  -2.835  -1.517  0.00  0.00    -0.287 OA
BRANCH  15  17
ATOM     17  C   *** d   *       4.140  -3.387   0.626  0.00  0.00     0.047 A 
ATOM     18  C   *** d   *       3.272  -3.767   1.594  0.00  0.00     0.082 A 
ATOM     19  C   *** d   *       3.739  -4.434   2.666  0.00  0.00     0.074 A 
ATOM     20  C   *** d   *       5.033  -4.729   2.857  0.00  0.00     0.068 A 
ATOM     21  C   *** d   *       5.878  -4.383   1.876  0.00  0.00     0.037 A 
ATOM     22  C   *** d   *       5.434  -3.742   0.785  0.00  0.00     0.021 A 
BRANCH  18  23
ATOM     23  O   *** d   *       1.917  -3.657   1.496  0.00  0.00    -0.360 OA
ATOM     24  H   *** d   *       1.492  -4.294   2.091  0.00  0.00     0.217 HD
ENDBRANCH  18  23
BRANCH  20  25
ATOM     25  O   *** d   *       5.465  -5.400   3.958  0.00  0.00    -0.361 OA
ATOM     26  H   *** d   *       6.414  -5.583   3.868  0.00  0.00     0.217 HD
ENDBRANCH  20  25
ENDBRANCH  15  17
ENDBRANCH  14  15
ENDBRANCH  11  13
TORSDOF 5
