REMARK  6 active torsions:
REMARK  status: ('A' for Active; 'I' for Inactive)
REMARK    1  A    between atoms: O_2  and  C_12 
REMARK    2  A    between atoms: O_3  and  C_14 
REMARK    3  A    between atoms: O_5  and  C_20 
REMARK    4  A    between atoms: O_6  and  C_18 
REMARK    5  A    between atoms: O_7  and  C_22 
REMARK    6  A    between atoms: C_9  and  C_11 
ROOT
ATOM      1  O   *** d   *       0.368   0.043  -0.246  0.00  0.00    -0.306 OA
ATOM      2  O   *** d   *       1.678   3.613   0.738  0.00  0.00    -0.284 OA
ATOM      3  C   *** d   *      -0.071   2.330   0.177  0.00  0.00     0.084 A 
ATOM      4  C   *** d   *       1.689   0.218   0.061  0.00  0.00     0.123 A 
ATOM      5  C   *** d   *      -0.482   1.092  -0.151  0.00  0.00     0.096 A 
ATOM      6  C   *** d   *       2.147   1.466   0.354  0.00  0.00     0.154 A 
ATOM      7  C   *** d   *       1.261   2.516   0.429  0.00  0.00     0.223 A 
ATOM      8  C   *** d   *      -0.981   3.333   0.247  0.00  0.00     0.085 A 
ATOM      9  C   *** d   *      -1.784   0.870  -0.404  0.00  0.00     0.075 A 
ATOM     10  C   *** d   *      -2.708   1.836  -0.343  0.00  0.00     0.071 A 
ATOM     11  C   *** d   *      -2.271   3.059  -0.015  0.00  0.00     0.074 A 
ENDROOT
BRANCH   4  12
ATOM     12  C   *** d   *       2.458  -0.912   0.002  0.00  0.00     0.004 A 
ATOM     13  C   *** d   *       1.900  -2.063  -0.447  0.00  0.00     0.054 A 
ATOM     14  C   *** d   *       2.518  -3.257  -0.565  0.00  0.00     0.102 A 
ATOM     15  C   *** d   *       3.811  -3.324  -0.195  0.00  0.00     0.099 A 
ATOM     16  C   *** d   *       4.401  -2.219   0.278  0.00  0.00     0.040 A 
ATOM     17  C   *** d   *       3.745  -1.055   0.379  0.00  0.00     0.017 A 
BRANCH  14  18
ATOM     18  O   *** d   *       1.934  -4.412  -1.036  0.00  0.00    -0.353 OA
ATOM     19  C   *** d   *       0.588  -4.395  -1.453  0.00  0.00     0.210 C 
ENDBRANCH  14  18
BRANCH  15  20
ATOM     20  O   *** d   *       4.511  -4.489  -0.276  0.00  0.00    -0.358 OA
ATOM     21  H   *** d   *       5.410  -4.341   0.058  0.00  0.00     0.218 HD
ENDBRANCH  15  20
ENDBRANCH   4  12
BRANCH   6  22
ATOM     22  O   *** d   *       3.501   1.691   0.501  0.00  0.00    -0.350 OA
ATOM     23  C   *** d   *       4.131   2.851   0.005  0.00  0.00     0.210 C 
ENDBRANCH   6  22
BRANCH   8  24
ATOM     24  O   *** d   *      -0.688   4.626   0.567  0.00  0.00    -0.360 OA
ATOM     25  H   *** d   *      -1.503   5.154   0.550  0.00  0.00     0.217 HD
ENDBRANCH   8  24
BRANCH  10  26
ATOM     26  O   *** d   *      -4.018   1.583  -0.604  0.00  0.00    -0.361 OA
ATOM     27  H   *** d   *      -4.125   0.642  -0.820  0.00  0.00     0.217 HD
ENDBRANCH  10  26
TORSDOF 6
