REMARK  5 active torsions:
REMARK  status: ('A' for Active; 'I' for Inactive)
REMARK    1  A    between atoms: O_2  and  C_12 
REMARK    2  A    between atoms: O_3  and  C_16 
REMARK    3  A    between atoms: O_4  and  C_17 
REMARK    4  A    between atoms: O_6  and  C_21 
REMARK    5  A    between atoms: C_8  and  C_11 
ROOT
ATOM      1  O   *** d   *      -2.503   1.528   0.275  0.00  0.00    -0.274 OA
ATOM      2  O   *** d   *      -3.452   3.483   0.504  0.00  0.00    -0.259 OA
ATOM      3  C   *** d   *      -0.258   1.269   0.985  0.00  0.00     0.032 A 
ATOM      4  C   *** d   *      -1.439   3.292   1.513  0.00  0.00     0.053 A 
ATOM      5  C   *** d   *      -1.348   0.812   0.343  0.00  0.00     0.095 A 
ATOM      6  C   *** d   *      -0.358   2.483   1.563  0.00  0.00     0.035 A 
ATOM      7  C   *** d   *       0.881   0.538   1.064  0.00  0.00     0.084 A 
ATOM      8  C   *** d   *      -2.500   2.788   0.810  0.00  0.00     0.299 A 
ATOM      9  C   *** d   *      -1.292  -0.398  -0.237  0.00  0.00     0.075 A 
ATOM     10  C   *** d   *       0.874  -0.666   0.456  0.00  0.00     0.074 A 
ATOM     11  C   *** d   *      -0.189  -1.158  -0.199  0.00  0.00     0.071 A 
ENDROOT
BRANCH   4  12
ATOM     12  C   *** d   *      -1.464   4.479   2.183  0.00  0.00     0.014 A 
ATOM     13  C   *** d   *      -2.577   5.058   2.705  0.00  0.00     0.079 A 
ATOM     14  C   *** d   *      -2.479   6.223   3.374  0.00  0.00     0.073 A 
ATOM     15  C   *** d   *      -1.334   6.897   3.542  0.00  0.00     0.068 A 
ATOM     16  C   *** d   *      -0.234   6.322   3.042  0.00  0.00     0.037 A 
ATOM     17  C   *** d   *      -0.308   5.148   2.399  0.00  0.00     0.018 A 
BRANCH  13  18
ATOM     18  O   *** d   *      -3.804   4.463   2.737  0.00  0.00    -0.360 OA
ATOM     19  H   *** d   *      -4.338   4.875   3.435  0.00  0.00     0.217 HD
ENDBRANCH  13  18
BRANCH  15  20
ATOM     20  O   *** d   *      -1.278   8.077   4.214  0.00  0.00    -0.361 OA
ATOM     21  H   *** d   *      -0.355   8.378   4.250  0.00  0.00     0.217 HD
ENDBRANCH  15  20
ENDBRANCH   4  12
BRANCH   7  22
ATOM     22  O   *** d   *       1.974   1.041   1.735  0.00  0.00    -0.355 OA
ATOM     23  C   *** d   *       3.166   0.293   1.786  0.00  0.00     0.210 C 
ENDBRANCH   7  22
BRANCH  11  24
ATOM     24  O   *** d   *      -0.147  -2.381  -0.793  0.00  0.00    -0.361 OA
ATOM     25  H   *** d   *       0.728  -2.776  -0.649  0.00  0.00     0.217 HD
ENDBRANCH  11  24
TORSDOF 5
