@<TRIPOS>MOLECULE
Unnamed
42 44 1 0 0
SMALL
USER_CHARGES


@<TRIPOS>ATOM
      1 O          -2.4184    1.9311   -0.1786 O.3       1     ****    0.0000
      2 O           4.4966   -2.8350   -1.5165 O.2       1     ****    0.0000
      3 O           1.9168   -3.6568    1.4960 O.3       1     ****    0.0000
      4 O           5.4651   -5.3998    3.9575 O.3       1     ****    0.0000
      5 C          -2.6859    2.8504    0.8447 C.3       1     ****    0.0000
      6 C          -2.2078    2.3436    2.1825 C.2       1     ****    0.0000
      7 C          -1.3121    1.1354   -0.0317 C.ar      1     ****    0.0000
      8 C          -0.7112    0.8948    1.1510 C.ar      1     ****    0.0000
      9 C          -4.1984    3.0900    0.8765 C.3       1     ****    0.0000
     10 C          -1.9509    4.1585    0.5263 C.3       1     ****    0.0000
     11 C          -1.2179    1.4467    2.2669 C.2       1     ****    0.0000
     12 C           0.3588    0.0805    1.2207 C.ar      1     ****    0.0000
     13 C          -0.7536    0.5731   -1.1182 C.ar      1     ****    0.0000
     14 C           0.9112   -0.4952    0.1332 C.ar      1     ****    0.0000
     15 C           0.3249   -0.2210   -1.0464 C.ar      1     ****    0.0000
     16 C           1.9888   -1.2964    0.2856 C.2       1     ****    0.0000
     17 C           2.7070   -1.9073   -0.6751 C.2       1     ****    0.0000
     18 C           4.1403   -3.3870    0.6257 C.ar      1     ****    0.0000
     19 C           3.7949   -2.7232   -0.5256 C.2       1     ****    0.0000
     20 C           3.2717   -3.7672    1.5941 C.ar      1     ****    0.0000
     21 C           5.4341   -3.7417    0.7851 C.ar      1     ****    0.0000
     22 C           3.7394   -4.4343    2.6657 C.ar      1     ****    0.0000
     23 C           5.8775   -4.3826    1.8760 C.ar      1     ****    0.0000
     24 C           5.0333   -4.7289    2.8565 C.ar      1     ****    0.0000
     25 H          -2.6175    2.8068    3.0951 H         1     ****    0.0000
     26 H          -4.4767    3.8555    1.6360 H         1     ****    0.0000
     27 H          -4.7471    2.1523    1.1237 H         1     ****    0.0000
     28 H          -4.5697    3.4469   -0.1112 H         1     ****    0.0000
     29 H          -2.1520    4.9339    1.3003 H         1     ****    0.0000
     30 H          -0.8481    4.0074    0.4810 H         1     ****    0.0000
     31 H          -2.2722    4.5743   -0.4559 H         1     ****    0.0000
     32 H          -0.8244    1.1920    3.2654 H         1     ****    0.0000
     33 H           0.8015   -0.1089    2.2148 H         1     ****    0.0000
     34 H          -1.2100    0.7652   -2.1049 H         1     ****    0.0000
     35 H           0.6877   -0.6401   -1.9974 H         1     ****    0.0000
     36 H           2.3588   -1.4110    1.3171 H         1     ****    0.0000
     37 H           2.4720   -1.6462   -1.7212 H         1     ****    0.0000
     38 H           6.2075   -3.4903    0.0389 H         1     ****    0.0000
     39 H           3.0199   -4.7778    3.4290 H         1     ****    0.0000
     40 H           6.9476   -4.6330    1.9722 H         1     ****    0.0000
     41 H           1.4924   -4.2944    2.0913 H         1     ****    0.0000
     42 H           6.4143   -5.5830    3.8681 H         1     ****    0.0000
@<TRIPOS>BOND
     1     1     5     1
     2     1     7     1
     3     2    19     2
     4     3    20     1
     5     3    41     1
     6     4    24     1
     7     4    42     1
     8     5     6     1
     9     5     9     1
    10     5    10     1
    11     6    11     2
    12     6    25     1
    13     7     8     1
    14     7    13     2
    15     8    11     1
    16     8    12     2
    17     9    26     1
    18     9    27     1
    19     9    28     1
    20    10    29     1
    21    10    30     1
    22    10    31     1
    23    11    32     1
    24    12    14     1
    25    12    33     1
    26    13    15     1
    27    13    34     1
    28    14    15     2
    29    14    16     1
    30    15    35     1
    31    16    17     2
    32    16    36     1
    33    17    19     1
    34    17    37     1
    35    18    19     1
    36    18    20     1
    37    18    21     2
    38    20    22     2
    39    21    23     1
    40    21    38     1
    41    22    24     1
    42    22    39     1
    43    23    24     2
    44    23    40     1
