@<TRIPOS>MOLECULE
Unnamed
38 40 1 0 0
SMALL
USER_CHARGES


@<TRIPOS>ATOM
      1 O           0.3685    0.0425   -0.2457 O.3       1     ****    0.0000
      2 O           3.5006    1.6911    0.5008 O.3       1     ****    0.0000
      3 O          -0.6882    4.6263    0.5666 O.3       1     ****    0.0000
      4 O           1.6780    3.6134    0.7382 O.2       1     ****    0.0000
      5 O           1.9339   -4.4124   -1.0361 O.3       1     ****    0.0000
      6 O          -4.0184    1.5830   -0.6036 O.3       1     ****    0.0000
      7 O           4.5110   -4.4891   -0.2762 O.3       1     ****    0.0000
      8 C          -0.0712    2.3298    0.1770 C.ar      1     ****    0.0000
      9 C           1.6892    0.2182    0.0609 C.2       1     ****    0.0000
     10 C          -0.4816    1.0924   -0.1513 C.ar      1     ****    0.0000
     11 C           2.4579   -0.9120    0.0024 C.ar      1     ****    0.0000
     12 C           2.1469    1.4665    0.3542 C.2       1     ****    0.0000
     13 C           1.2605    2.5156    0.4288 C.2       1     ****    0.0000
     14 C          -0.9810    3.3332    0.2466 C.ar      1     ****    0.0000
     15 C          -1.7835    0.8699   -0.4042 C.ar      1     ****    0.0000
     16 C           1.8995   -2.0627   -0.4471 C.ar      1     ****    0.0000
     17 C           3.7453   -1.0545    0.3787 C.ar      1     ****    0.0000
     18 C          -2.7080    1.8360   -0.3432 C.ar      1     ****    0.0000
     19 C          -2.2713    3.0585   -0.0148 C.ar      1     ****    0.0000
     20 C           2.5175   -3.2574   -0.5650 C.ar      1     ****    0.0000
     21 C           4.4012   -2.2189    0.2783 C.ar      1     ****    0.0000
     22 C           3.8110   -3.3239   -0.1950 C.ar      1     ****    0.0000
     23 C           4.1314    2.8512    0.0047 C.3       1     ****    0.0000
     24 C           0.5882   -4.3947   -1.4534 C.3       1     ****    0.0000
     25 H          -2.1074   -0.1499   -0.6741 H         1     ****    0.0000
     26 H           0.8483   -2.0554   -0.7667 H         1     ****    0.0000
     27 H           4.3522   -0.2629    0.8343 H         1     ****    0.0000
     28 H          -3.0135    3.8733    0.0413 H         1     ****    0.0000
     29 H           5.4529   -2.2826    0.6084 H         1     ****    0.0000
     30 H          -1.5031    5.1539    0.5503 H         1     ****    0.0000
     31 H           5.1898    2.5860   -0.2181 H         1     ****    0.0000
     32 H           3.6583    3.1870   -0.9447 H         1     ****    0.0000
     33 H           4.1716    3.6489    0.7779 H         1     ****    0.0000
     34 H          -4.1250    0.6425   -0.8195 H         1     ****    0.0000
     35 H           5.4102   -4.3410    0.0584 H         1     ****    0.0000
     36 H           0.3269   -5.4210   -1.7964 H         1     ****    0.0000
     37 H          -0.0803   -4.1376   -0.6015 H         1     ****    0.0000
     38 H           0.4569   -3.7015   -2.3141 H         1     ****    0.0000
@<TRIPOS>BOND
     1     1     9     1
     2     1    10     1
     3     2    12     1
     4     2    23     1
     5     3    14     1
     6     3    30     1
     7     4    13     2
     8     5    20     1
     9     5    24     1
    10     6    18     1
    11     6    34     1
    12     7    22     1
    13     7    35     1
    14     8    10     1
    15     8    13     1
    16     8    14     2
    17     9    11     1
    18     9    12     2
    19    10    15     2
    20    11    16     1
    21    11    17     2
    22    12    13     1
    23    14    19     1
    24    15    18     1
    25    15    25     1
    26    16    20     2
    27    16    26     1
    28    17    21     1
    29    17    27     1
    30    18    19     2
    31    19    28     1
    32    20    22     1
    33    21    22     2
    34    21    29     1
    35    23    31     1
    36    23    32     1
    37    23    33     1
    38    24    36     1
    39    24    37     1
    40    24    38     1
